* DIODES INCORPORATED AND ITS AFFILIATED COMPANIES AND SUBSIDIARIES (COLLECTIVELY, "DIODES") 
* PROVIDE THESE SPICE MODELS AND DATA (COLLECTIVELY, THE "SM DATA") "AS IS" AND WITHOUT ANY 
* REPRESENTATIONS OR WARRANTIES, EXPRESS OR IMPLIED, INCLUDING ANY WARRANTY OF MERCHANTABILITY 
* OR FITNESS FOR A PARTICULAR PURPOSE, ANY WARRANTY ARISING FROM COURSE OF DEALING OR COURSE OF 
* PERFORMANCE, OR ANY WARRANTY THAT ACCESS TO OR OPERATION OF THE SM DATA WILL BE UNINTERRUPTED, 
* OR THAT THE SM DATA OR ANY SIMULATION USING THE SM DATA WILL BE ERROR FREE. TO THE MAXIMUM 
* EXTENT PERMITTED BY LAW, IN NO EVENT WILL DIODES BE LIABLE FOR ANY DIRECT OR INDIRECT, 
* SPECIAL, INCIDENTAL, PUNITIVE OR CONSEQUENTIAL DAMAGES ARISING OUT OF OR IN CONNECTION WITH 
* THE PRODUCTION OR USE OF SM DATA, HOWEVER CAUSED AND UNDER WHATEVER CAUSE OF ACTION OR THEORY 
* OF LIABILITY BROUGHT (INCLUDING, WITHOUT LIMITATION, UNDER ANY CONTRACT, NEGLIGENCE OR OTHER 
* TORT THEORY OF LIABILITY), EVEN IF DIODES HAS BEEN ADVISED OF THE POSSIBILITY OF SUCH DAMAGES, 
* AND DIODES' TOTAL LIABILITY (WHETHER IN CONTRACT, TORT OR OTHERWISE) WITH REGARD TO THE SM 
* DATA WILL NOT, IN THE AGGREGATE, EXCEED ANY SUMS PAID BY YOU TO DIODES FOR THE SM DATA.



*---------- DMTH10H025SK3 Spice Model ----------
.SUBCKT DMTH10H025SK3 10 20 30 
*     TERMINALS:  D  G  S
M1 1 2 3 3 NMOS L = 1E-006 W = 1E-006 
RD 10 1 0.00799 
RS 30 3 0.001 
RG 20 2 6.22 
CGS 2 3 1.533E-009 
EGD 12 0 2 1 1 
VFB 14 0 0 
FFB 2 1 VFB 1 
CGD 13 14 3.6E-010 
R1 13 0 1 
D1 12 13 DLIM 
DDG 15 14 DCGD 
R2 12 15 1 
D2 15 0 DLIM 
DSD 3 10 DSUB 
.MODEL NMOS NMOS LEVEL = 3 VMAX = 5.378E+005 ETA = 0.001 VTO = 2.941 
+ TOX = 6E-008 NSUB = 1E+016 KP = 23.64 U0 = 400 KAPPA = 10 
.MODEL DCGD D CJO = 3.591E-010 VJ = 0.8 M = 0.7054 
.MODEL DSUB D IS = 2.335E-010 N = 1.273 RS = 0.001925 BV = 109 CJO = 4.489E-010 VJ = 0.8 M = 0.6 TT = 3.5E-008 
.MODEL DLIM D IS = 0.0001 
.ENDS
*Diodes DMTH10H025SK3 Spice Model v1.0 Last Revised 2018/2/14